
#======================================================================
# CRYSTAL DATA
#----------------------------------------------------------------------
data_VESTA_phase_1

_chemical_name_common                  '0.5(C85.44 H42.72 O56 Zr12), 4(H1 O1)'
_cell_length_a                         20.743900
_cell_length_b                         20.743900
_cell_length_c                         20.743900
_cell_angle_alpha                      90.000000
_cell_angle_beta                       90.000000
_cell_angle_gamma                      90.000000
_cell_volume                           8926.295283
_space_group_name_H-M_alt              'P 1'
_space_group_IT_number                 1

loop_
_space_group_symop_operation_xyz
   'x, y, z'

loop_
   _atom_site_label
   _atom_site_occupancy
   _atom_site_fract_x
   _atom_site_fract_y
   _atom_site_fract_z
   _atom_site_adp_type
   _atom_site_U_iso_or_equiv
   _atom_site_type_symbol
   Zr1        1.0     0.119610     0.000000     0.000000    Uiso  ? Zr
   Zr2        1.0     0.880390     0.000000     0.000000    Uiso  ? Zr
   Zr3        1.0     0.000000     0.119610     0.000000    Uiso  ? Zr
   Zr4        1.0     0.000000     0.880390     0.000000    Uiso  ? Zr
   Zr5        1.0     0.000000     0.000000     0.119610    Uiso  ? Zr
   Zr6        1.0     0.000000     0.000000     0.880390    Uiso  ? Zr
   Zr7        1.0     0.119610     0.500000     0.500000    Uiso  ? Zr
   Zr8        1.0     0.880390     0.500000     0.500000    Uiso  ? Zr
   Zr9        1.0     0.000000     0.619610     0.500000    Uiso  ? Zr
   Zr10       1.0     0.000000     0.380390     0.500000    Uiso  ? Zr
   Zr11       1.0     0.000000     0.500000     0.619610    Uiso  ? Zr
   Zr12       1.0     0.000000     0.500000     0.380390    Uiso  ? Zr
   Zr13       1.0     0.619610     0.000000     0.500000    Uiso  ? Zr
   Zr14       1.0     0.380390     0.000000     0.500000    Uiso  ? Zr
   Zr15       1.0     0.500000     0.119610     0.500000    Uiso  ? Zr
   Zr16       1.0     0.500000     0.880390     0.500000    Uiso  ? Zr
   Zr17       1.0     0.500000     0.000000     0.619610    Uiso  ? Zr
   Zr18       1.0     0.500000     0.000000     0.380390    Uiso  ? Zr
   Zr19       1.0     0.619610     0.500000     0.000000    Uiso  ? Zr
   Zr20       1.0     0.380390     0.500000     0.000000    Uiso  ? Zr
   Zr21       1.0     0.500000     0.619610     0.000000    Uiso  ? Zr
   Zr22       1.0     0.500000     0.380390     0.000000    Uiso  ? Zr
   Zr23       1.0     0.500000     0.500000     0.119610    Uiso  ? Zr
   Zr24       1.0     0.500000     0.500000     0.880390    Uiso  ? Zr
   O1         1.0     0.173350     0.907700     0.000000    Uiso  ? O
   O2         1.0     0.826650     0.092300     0.000000    Uiso  ? O
   O3         1.0     0.826650     0.907700     0.000000    Uiso  ? O
   O4         1.0     0.173350     0.092300     0.000000    Uiso  ? O
   O5         1.0     0.000000     0.173350     0.907700    Uiso  ? O
   O6         1.0     0.000000     0.826650     0.092300    Uiso  ? O
   O7         1.0     0.000000     0.826650     0.907700    Uiso  ? O
   O8         1.0     0.000000     0.173350     0.092300    Uiso  ? O
   O9         1.0     0.907700     0.000000     0.173350    Uiso  ? O
   O10        1.0     0.092300     0.000000     0.826650    Uiso  ? O
   O11        1.0     0.907700     0.000000     0.826650    Uiso  ? O
   O12        1.0     0.092300     0.000000     0.173350    Uiso  ? O
   O13        1.0     0.907700     0.173350     0.000000    Uiso  ? O
   O14        1.0     0.092300     0.826650     0.000000    Uiso  ? O
   O15        1.0     0.907700     0.826650     0.000000    Uiso  ? O
   O16        1.0     0.092300     0.173350     0.000000    Uiso  ? O
   O17        1.0     0.173350     0.000000     0.092300    Uiso  ? O
   O18        1.0     0.826650     0.000000     0.907700    Uiso  ? O
   O19        1.0     0.826650     0.000000     0.092300    Uiso  ? O
   O20        1.0     0.173350     0.000000     0.907700    Uiso  ? O
   O21        1.0     0.000000     0.907700     0.826650    Uiso  ? O
   O22        1.0     0.000000     0.092300     0.173350    Uiso  ? O
   O23        1.0     0.000000     0.907700     0.173350    Uiso  ? O
   O24        1.0     0.000000     0.092300     0.826650    Uiso  ? O
   O25        1.0     0.173350     0.407700     0.500000    Uiso  ? O
   O26        1.0     0.826650     0.592300     0.500000    Uiso  ? O
   O27        1.0     0.826650     0.407700     0.500000    Uiso  ? O
   O28        1.0     0.173350     0.592300     0.500000    Uiso  ? O
   O29        1.0     0.000000     0.673350     0.407700    Uiso  ? O
   O30        1.0     0.000000     0.326650     0.592300    Uiso  ? O
   O31        1.0     0.000000     0.326650     0.407700    Uiso  ? O
   O32        1.0     0.000000     0.673350     0.592300    Uiso  ? O
   O33        1.0     0.907700     0.500000     0.673350    Uiso  ? O
   O34        1.0     0.092300     0.500000     0.326650    Uiso  ? O
   O35        1.0     0.907700     0.500000     0.326650    Uiso  ? O
   O36        1.0     0.092300     0.500000     0.673350    Uiso  ? O
   O37        1.0     0.907700     0.673350     0.500000    Uiso  ? O
   O38        1.0     0.092300     0.326650     0.500000    Uiso  ? O
   O39        1.0     0.907700     0.326650     0.500000    Uiso  ? O
   O40        1.0     0.092300     0.673350     0.500000    Uiso  ? O
   O41        1.0     0.173350     0.500000     0.592300    Uiso  ? O
   O42        1.0     0.826650     0.500000     0.407700    Uiso  ? O
   O43        1.0     0.826650     0.500000     0.592300    Uiso  ? O
   O44        1.0     0.173350     0.500000     0.407700    Uiso  ? O
   O45        1.0     0.000000     0.407700     0.326650    Uiso  ? O
   O46        1.0     0.000000     0.592300     0.673350    Uiso  ? O
   O47        1.0     0.000000     0.407700     0.673350    Uiso  ? O
   O48        1.0     0.000000     0.592300     0.326650    Uiso  ? O
   O49        1.0     0.673350     0.907700     0.500000    Uiso  ? O
   O50        1.0     0.326650     0.092300     0.500000    Uiso  ? O
   O51        1.0     0.326650     0.907700     0.500000    Uiso  ? O
   O52        1.0     0.673350     0.092300     0.500000    Uiso  ? O
   O53        1.0     0.500000     0.173350     0.407700    Uiso  ? O
   O54        1.0     0.500000     0.826650     0.592300    Uiso  ? O
   O55        1.0     0.500000     0.826650     0.407700    Uiso  ? O
   O56        1.0     0.500000     0.173350     0.592300    Uiso  ? O
   O57        1.0     0.407700     0.000000     0.673350    Uiso  ? O
   O58        1.0     0.592300     0.000000     0.326650    Uiso  ? O
   O59        1.0     0.407700     0.000000     0.326650    Uiso  ? O
   O60        1.0     0.592300     0.000000     0.673350    Uiso  ? O
   O61        1.0     0.407700     0.173350     0.500000    Uiso  ? O
   O62        1.0     0.592300     0.826650     0.500000    Uiso  ? O
   O63        1.0     0.407700     0.826650     0.500000    Uiso  ? O
   O64        1.0     0.592300     0.173350     0.500000    Uiso  ? O
   O65        1.0     0.673350     0.000000     0.592300    Uiso  ? O
   O66        1.0     0.326650     0.000000     0.407700    Uiso  ? O
   O67        1.0     0.326650     0.000000     0.592300    Uiso  ? O
   O68        1.0     0.673350     0.000000     0.407700    Uiso  ? O
   O69        1.0     0.500000     0.907700     0.326650    Uiso  ? O
   O70        1.0     0.500000     0.092300     0.673350    Uiso  ? O
   O71        1.0     0.500000     0.907700     0.673350    Uiso  ? O
   O72        1.0     0.500000     0.092300     0.326650    Uiso  ? O
   O73        1.0     0.673350     0.407700     0.000000    Uiso  ? O
   O74        1.0     0.326650     0.592300     0.000000    Uiso  ? O
   O75        1.0     0.326650     0.407700     0.000000    Uiso  ? O
   O76        1.0     0.673350     0.592300     0.000000    Uiso  ? O
   O77        1.0     0.500000     0.673350     0.907700    Uiso  ? O
   O78        1.0     0.500000     0.326650     0.092300    Uiso  ? O
   O79        1.0     0.500000     0.326650     0.907700    Uiso  ? O
   O80        1.0     0.500000     0.673350     0.092300    Uiso  ? O
   O81        1.0     0.407700     0.500000     0.173350    Uiso  ? O
   O82        1.0     0.592300     0.500000     0.826650    Uiso  ? O
   O83        1.0     0.407700     0.500000     0.826650    Uiso  ? O
   O84        1.0     0.592300     0.500000     0.173350    Uiso  ? O
   O85        1.0     0.407700     0.673350     0.000000    Uiso  ? O
   O86        1.0     0.592300     0.326650     0.000000    Uiso  ? O
   O87        1.0     0.407700     0.326650     0.000000    Uiso  ? O
   O88        1.0     0.592300     0.673350     0.000000    Uiso  ? O
   O89        1.0     0.673350     0.500000     0.092300    Uiso  ? O
   O90        1.0     0.326650     0.500000     0.907700    Uiso  ? O
   O91        1.0     0.326650     0.500000     0.092300    Uiso  ? O
   O92        1.0     0.673350     0.500000     0.907700    Uiso  ? O
   O93        1.0     0.500000     0.407700     0.826650    Uiso  ? O
   O94        1.0     0.500000     0.592300     0.173350    Uiso  ? O
   O95        1.0     0.500000     0.407700     0.173350    Uiso  ? O
   O96        1.0     0.500000     0.592300     0.826650    Uiso  ? O
   O97        1.0     0.067900     0.067900     0.067900    Uiso  ? O
   O98        1.0     0.932100     0.932100     0.932100    Uiso  ? O
   O99        1.0     0.932100     0.932100     0.067900    Uiso  ? O
   O100       1.0     0.067900     0.067900     0.932100    Uiso  ? O
   O101       1.0     0.932100     0.067900     0.932100    Uiso  ? O
   O102       1.0     0.067900     0.932100     0.067900    Uiso  ? O
   O103       1.0     0.067900     0.932100     0.932100    Uiso  ? O
   O104       1.0     0.932100     0.067900     0.067900    Uiso  ? O
   O105       1.0     0.067900     0.567900     0.567900    Uiso  ? O
   O106       1.0     0.932100     0.432100     0.432100    Uiso  ? O
   O107       1.0     0.932100     0.432100     0.567900    Uiso  ? O
   O108       1.0     0.067900     0.567900     0.432100    Uiso  ? O
   O109       1.0     0.932100     0.567900     0.432100    Uiso  ? O
   O110       1.0     0.067900     0.432100     0.567900    Uiso  ? O
   O111       1.0     0.067900     0.432100     0.432100    Uiso  ? O
   O112       1.0     0.932100     0.567900     0.567900    Uiso  ? O
   O113       1.0     0.567900     0.067900     0.567900    Uiso  ? O
   O114       1.0     0.432100     0.932100     0.432100    Uiso  ? O
   O115       1.0     0.432100     0.932100     0.567900    Uiso  ? O
   O116       1.0     0.567900     0.067900     0.432100    Uiso  ? O
   O117       1.0     0.432100     0.067900     0.432100    Uiso  ? O
   O118       1.0     0.567900     0.932100     0.567900    Uiso  ? O
   O119       1.0     0.567900     0.932100     0.432100    Uiso  ? O
   O120       1.0     0.432100     0.067900     0.567900    Uiso  ? O
   O121       1.0     0.567900     0.567900     0.067900    Uiso  ? O
   O122       1.0     0.432100     0.432100     0.932100    Uiso  ? O
   O123       1.0     0.432100     0.432100     0.067900    Uiso  ? O
   O124       1.0     0.567900     0.567900     0.932100    Uiso  ? O
   O125       1.0     0.432100     0.567900     0.932100    Uiso  ? O
   O126       1.0     0.567900     0.432100     0.067900    Uiso  ? O
   O127       1.0     0.567900     0.432100     0.932100    Uiso  ? O
   O128       1.0     0.432100     0.567900     0.067900    Uiso  ? O
   H1         1.0     0.090100     0.090100     0.090100    Uiso  ? H
   H2         1.0     0.909900     0.909900     0.909900    Uiso  ? H
   H3         1.0     0.909900     0.909900     0.090100    Uiso  ? H
   H4         1.0     0.090100     0.090100     0.909900    Uiso  ? H
   H5         1.0     0.909900     0.090100     0.909900    Uiso  ? H
   H6         1.0     0.090100     0.909900     0.090100    Uiso  ? H
   H7         1.0     0.090100     0.909900     0.909900    Uiso  ? H
   H8         1.0     0.909900     0.090100     0.090100    Uiso  ? H
   H9         1.0     0.090100     0.590100     0.590100    Uiso  ? H
   H10        1.0     0.909900     0.409900     0.409900    Uiso  ? H
   H11        1.0     0.909900     0.409900     0.590100    Uiso  ? H
   H12        1.0     0.090100     0.590100     0.409900    Uiso  ? H
   H13        1.0     0.909900     0.590100     0.409900    Uiso  ? H
   H14        1.0     0.090100     0.409900     0.590100    Uiso  ? H
   H15        1.0     0.090100     0.409900     0.409900    Uiso  ? H
   H16        1.0     0.909900     0.590100     0.590100    Uiso  ? H
   H17        1.0     0.590100     0.090100     0.590100    Uiso  ? H
   H18        1.0     0.409900     0.909900     0.409900    Uiso  ? H
   H19        1.0     0.409900     0.909900     0.590100    Uiso  ? H
   H20        1.0     0.590100     0.090100     0.409900    Uiso  ? H
   H21        1.0     0.409900     0.090100     0.409900    Uiso  ? H
   H22        1.0     0.590100     0.909900     0.590100    Uiso  ? H
   H23        1.0     0.590100     0.909900     0.409900    Uiso  ? H
   H24        1.0     0.409900     0.090100     0.590100    Uiso  ? H
   H25        1.0     0.590100     0.590100     0.090100    Uiso  ? H
   H26        1.0     0.409900     0.409900     0.909900    Uiso  ? H
   H27        1.0     0.409900     0.409900     0.090100    Uiso  ? H
   H28        1.0     0.590100     0.590100     0.909900    Uiso  ? H
   H29        1.0     0.409900     0.590100     0.909900    Uiso  ? H
   H30        1.0     0.590100     0.409900     0.090100    Uiso  ? H
   H31        1.0     0.590100     0.409900     0.909900    Uiso  ? H
   H32        1.0     0.409900     0.590100     0.090100    Uiso  ? H
   H33        1.0     0.278904     0.858700     0.000000    Uiso  ? H
   H34        1.0     0.721096     0.141300     0.000000    Uiso  ? H
   H35        1.0     0.721096     0.858700     0.000000    Uiso  ? H
   H36        1.0     0.278904     0.141300     0.000000    Uiso  ? H
   H37        1.0     0.000000     0.278904     0.858700    Uiso  ? H
   H38        1.0     0.000000     0.721096     0.141300    Uiso  ? H
   H39        1.0     0.000000     0.721096     0.858700    Uiso  ? H
   H40        1.0     0.000000     0.278904     0.141300    Uiso  ? H
   H41        1.0     0.858700     0.000000     0.278904    Uiso  ? H
   H42        1.0     0.141300     0.000000     0.721096    Uiso  ? H
   H43        1.0     0.858700     0.000000     0.721096    Uiso  ? H
   H44        1.0     0.141300     0.000000     0.278904    Uiso  ? H
   H45        1.0     0.858700     0.278904     0.000000    Uiso  ? H
   H46        1.0     0.141300     0.721096     0.000000    Uiso  ? H
   H47        1.0     0.858700     0.721096     0.000000    Uiso  ? H
   H48        1.0     0.141300     0.278904     0.000000    Uiso  ? H
   H49        1.0     0.278904     0.000000     0.141300    Uiso  ? H
   H50        1.0     0.721096     0.000000     0.858700    Uiso  ? H
   H51        1.0     0.721096     0.000000     0.141300    Uiso  ? H
   H52        1.0     0.278904     0.000000     0.858700    Uiso  ? H
   H53        1.0     0.000000     0.858700     0.721096    Uiso  ? H
   H54        1.0     0.000000     0.141300     0.278904    Uiso  ? H
   H55        1.0     0.000000     0.858700     0.278904    Uiso  ? H
   H56        1.0     0.000000     0.141300     0.721096    Uiso  ? H
   H57        1.0     0.278904     0.358700     0.500000    Uiso  ? H
   H58        1.0     0.721096     0.641300     0.500000    Uiso  ? H
   H59        1.0     0.721096     0.358700     0.500000    Uiso  ? H
   H60        1.0     0.278904     0.641300     0.500000    Uiso  ? H
   H61        1.0     0.000000     0.778904     0.358700    Uiso  ? H
   H62        1.0     0.000000     0.221096     0.641300    Uiso  ? H
   H63        1.0     0.000000     0.221096     0.358700    Uiso  ? H
   H64        1.0     0.000000     0.778904     0.641300    Uiso  ? H
   H65        1.0     0.858700     0.500000     0.778904    Uiso  ? H
   H66        1.0     0.141300     0.500000     0.221096    Uiso  ? H
   H67        1.0     0.858700     0.500000     0.221096    Uiso  ? H
   H68        1.0     0.141300     0.500000     0.778904    Uiso  ? H
   H69        1.0     0.858700     0.778904     0.500000    Uiso  ? H
   H70        1.0     0.141300     0.221096     0.500000    Uiso  ? H
   H71        1.0     0.858700     0.221096     0.500000    Uiso  ? H
   H72        1.0     0.141300     0.778904     0.500000    Uiso  ? H
   H73        1.0     0.278904     0.500000     0.641300    Uiso  ? H
   H74        1.0     0.721096     0.500000     0.358700    Uiso  ? H
   H75        1.0     0.721096     0.500000     0.641300    Uiso  ? H
   H76        1.0     0.278904     0.500000     0.358700    Uiso  ? H
   H77        1.0     0.000000     0.358700     0.221096    Uiso  ? H
   H78        1.0     0.000000     0.641300     0.778904    Uiso  ? H
   H79        1.0     0.000000     0.358700     0.778904    Uiso  ? H
   H80        1.0     0.000000     0.641300     0.221096    Uiso  ? H
   H81        1.0     0.778904     0.858700     0.500000    Uiso  ? H
   H82        1.0     0.221096     0.141300     0.500000    Uiso  ? H
   H83        1.0     0.221096     0.858700     0.500000    Uiso  ? H
   H84        1.0     0.778904     0.141300     0.500000    Uiso  ? H
   H85        1.0     0.500000     0.278904     0.358700    Uiso  ? H
   H86        1.0     0.500000     0.721096     0.641300    Uiso  ? H
   H87        1.0     0.500000     0.721096     0.358700    Uiso  ? H
   H88        1.0     0.500000     0.278904     0.641300    Uiso  ? H
   H89        1.0     0.358700     0.000000     0.778904    Uiso  ? H
   H90        1.0     0.641300     0.000000     0.221096    Uiso  ? H
   H91        1.0     0.358700     0.000000     0.221096    Uiso  ? H
   H92        1.0     0.641300     0.000000     0.778904    Uiso  ? H
   H93        1.0     0.358700     0.278904     0.500000    Uiso  ? H
   H94        1.0     0.641300     0.721096     0.500000    Uiso  ? H
   H95        1.0     0.358700     0.721096     0.500000    Uiso  ? H
   H96        1.0     0.641300     0.278904     0.500000    Uiso  ? H
   H97        1.0     0.778904     0.000000     0.641300    Uiso  ? H
   H98        1.0     0.221096     0.000000     0.358700    Uiso  ? H
   H99        1.0     0.221096     0.000000     0.641300    Uiso  ? H
   H100       1.0     0.778904     0.000000     0.358700    Uiso  ? H
   H101       1.0     0.500000     0.858700     0.221096    Uiso  ? H
   H102       1.0     0.500000     0.141300     0.778904    Uiso  ? H
   H103       1.0     0.500000     0.858700     0.778904    Uiso  ? H
   H104       1.0     0.500000     0.141300     0.221096    Uiso  ? H
   H105       1.0     0.778904     0.358700     0.000000    Uiso  ? H
   H106       1.0     0.221096     0.641300     0.000000    Uiso  ? H
   H107       1.0     0.221096     0.358700     0.000000    Uiso  ? H
   H108       1.0     0.778904     0.641300     0.000000    Uiso  ? H
   H109       1.0     0.500000     0.778904     0.858700    Uiso  ? H
   H110       1.0     0.500000     0.221096     0.141300    Uiso  ? H
   H111       1.0     0.500000     0.221096     0.858700    Uiso  ? H
   H112       1.0     0.500000     0.778904     0.141300    Uiso  ? H
   H113       1.0     0.358700     0.500000     0.278904    Uiso  ? H
   H114       1.0     0.641300     0.500000     0.721096    Uiso  ? H
   H115       1.0     0.358700     0.500000     0.721096    Uiso  ? H
   H116       1.0     0.641300     0.500000     0.278904    Uiso  ? H
   H117       1.0     0.358700     0.778904     0.000000    Uiso  ? H
   H118       1.0     0.641300     0.221096     0.000000    Uiso  ? H
   H119       1.0     0.358700     0.221096     0.000000    Uiso  ? H
   H120       1.0     0.641300     0.778904     0.000000    Uiso  ? H
   H121       1.0     0.778904     0.500000     0.141300    Uiso  ? H
   H122       1.0     0.221096     0.500000     0.858700    Uiso  ? H
   H123       1.0     0.221096     0.500000     0.141300    Uiso  ? H
   H124       1.0     0.778904     0.500000     0.858700    Uiso  ? H
   H125       1.0     0.500000     0.358700     0.721096    Uiso  ? H
   H126       1.0     0.500000     0.641300     0.278904    Uiso  ? H
   H127       1.0     0.500000     0.358700     0.278904    Uiso  ? H
   H128       1.0     0.500000     0.641300     0.721096    Uiso  ? H
   C1         1.0     0.151600     0.848400     0.000000    Uiso  ? C
   C2         1.0     0.848400     0.151600     0.000000    Uiso  ? C
   C3         1.0     0.848400     0.848400     0.000000    Uiso  ? C
   C4         1.0     0.151600     0.151600     0.000000    Uiso  ? C
   C5         1.0     0.000000     0.151600     0.848400    Uiso  ? C
   C6         1.0     0.000000     0.848400     0.151600    Uiso  ? C
   C7         1.0     0.000000     0.848400     0.848400    Uiso  ? C
   C8         1.0     0.000000     0.151600     0.151600    Uiso  ? C
   C9         1.0     0.848400     0.000000     0.151600    Uiso  ? C
   C10        1.0     0.151600     0.000000     0.848400    Uiso  ? C
   C11        1.0     0.848400     0.000000     0.848400    Uiso  ? C
   C12        1.0     0.151600     0.000000     0.151600    Uiso  ? C
   C13        1.0     0.151600     0.348400     0.500000    Uiso  ? C
   C14        1.0     0.848400     0.651600     0.500000    Uiso  ? C
   C15        1.0     0.848400     0.348400     0.500000    Uiso  ? C
   C16        1.0     0.151600     0.651600     0.500000    Uiso  ? C
   C17        1.0     0.000000     0.651600     0.348400    Uiso  ? C
   C18        1.0     0.000000     0.348400     0.651600    Uiso  ? C
   C19        1.0     0.000000     0.348400     0.348400    Uiso  ? C
   C20        1.0     0.000000     0.651600     0.651600    Uiso  ? C
   C21        1.0     0.848400     0.500000     0.651600    Uiso  ? C
   C22        1.0     0.151600     0.500000     0.348400    Uiso  ? C
   C23        1.0     0.848400     0.500000     0.348400    Uiso  ? C
   C24        1.0     0.151600     0.500000     0.651600    Uiso  ? C
   C25        1.0     0.651600     0.848400     0.500000    Uiso  ? C
   C26        1.0     0.348400     0.151600     0.500000    Uiso  ? C
   C27        1.0     0.348400     0.848400     0.500000    Uiso  ? C
   C28        1.0     0.651600     0.151600     0.500000    Uiso  ? C
   C29        1.0     0.500000     0.151600     0.348400    Uiso  ? C
   C30        1.0     0.500000     0.848400     0.651600    Uiso  ? C
   C31        1.0     0.500000     0.848400     0.348400    Uiso  ? C
   C32        1.0     0.500000     0.151600     0.651600    Uiso  ? C
   C33        1.0     0.348400     0.000000     0.651600    Uiso  ? C
   C34        1.0     0.651600     0.000000     0.348400    Uiso  ? C
   C35        1.0     0.348400     0.000000     0.348400    Uiso  ? C
   C36        1.0     0.651600     0.000000     0.651600    Uiso  ? C
   C37        1.0     0.651600     0.348400     0.000000    Uiso  ? C
   C38        1.0     0.348400     0.651600     0.000000    Uiso  ? C
   C39        1.0     0.348400     0.348400     0.000000    Uiso  ? C
   C40        1.0     0.651600     0.651600     0.000000    Uiso  ? C
   C41        1.0     0.500000     0.651600     0.848400    Uiso  ? C
   C42        1.0     0.500000     0.348400     0.151600    Uiso  ? C
   C43        1.0     0.500000     0.348400     0.848400    Uiso  ? C
   C44        1.0     0.500000     0.651600     0.151600    Uiso  ? C
   C45        1.0     0.348400     0.500000     0.151600    Uiso  ? C
   C46        1.0     0.651600     0.500000     0.848400    Uiso  ? C
   C47        1.0     0.348400     0.500000     0.848400    Uiso  ? C
   C48        1.0     0.651600     0.500000     0.151600    Uiso  ? C
   C49        1.0     0.202800     0.797200     0.000000    Uiso  ? C
   C50        1.0     0.797200     0.202800     0.000000    Uiso  ? C
   C51        1.0     0.797200     0.797200     0.000000    Uiso  ? C
   C52        1.0     0.202800     0.202800     0.000000    Uiso  ? C
   C53        1.0     0.000000     0.202800     0.797200    Uiso  ? C
   C54        1.0     0.000000     0.797200     0.202800    Uiso  ? C
   C55        1.0     0.000000     0.797200     0.797200    Uiso  ? C
   C56        1.0     0.000000     0.202800     0.202800    Uiso  ? C
   C57        1.0     0.797200     0.000000     0.202800    Uiso  ? C
   C58        1.0     0.202800     0.000000     0.797200    Uiso  ? C
   C59        1.0     0.797200     0.000000     0.797200    Uiso  ? C
   C60        1.0     0.202800     0.000000     0.202800    Uiso  ? C
   C61        1.0     0.202800     0.297200     0.500000    Uiso  ? C
   C62        1.0     0.797200     0.702800     0.500000    Uiso  ? C
   C63        1.0     0.797200     0.297200     0.500000    Uiso  ? C
   C64        1.0     0.202800     0.702800     0.500000    Uiso  ? C
   C65        1.0     0.000000     0.702800     0.297200    Uiso  ? C
   C66        1.0     0.000000     0.297200     0.702800    Uiso  ? C
   C67        1.0     0.000000     0.297200     0.297200    Uiso  ? C
   C68        1.0     0.000000     0.702800     0.702800    Uiso  ? C
   C69        1.0     0.797200     0.500000     0.702800    Uiso  ? C
   C70        1.0     0.202800     0.500000     0.297200    Uiso  ? C
   C71        1.0     0.797200     0.500000     0.297200    Uiso  ? C
   C72        1.0     0.202800     0.500000     0.702800    Uiso  ? C
   C73        1.0     0.702800     0.797200     0.500000    Uiso  ? C
   C74        1.0     0.297200     0.202800     0.500000    Uiso  ? C
   C75        1.0     0.297200     0.797200     0.500000    Uiso  ? C
   C76        1.0     0.702800     0.202800     0.500000    Uiso  ? C
   C77        1.0     0.500000     0.202800     0.297200    Uiso  ? C
   C78        1.0     0.500000     0.797200     0.702800    Uiso  ? C
   C79        1.0     0.500000     0.797200     0.297200    Uiso  ? C
   C80        1.0     0.500000     0.202800     0.702800    Uiso  ? C
   C81        1.0     0.297200     0.000000     0.702800    Uiso  ? C
   C82        1.0     0.702800     0.000000     0.297200    Uiso  ? C
   C83        1.0     0.297200     0.000000     0.297200    Uiso  ? C
   C84        1.0     0.702800     0.000000     0.702800    Uiso  ? C
   C85        1.0     0.702800     0.297200     0.000000    Uiso  ? C
   C86        1.0     0.297200     0.702800     0.000000    Uiso  ? C
   C87        1.0     0.297200     0.297200     0.000000    Uiso  ? C
   C88        1.0     0.702800     0.702800     0.000000    Uiso  ? C
   C89        1.0     0.500000     0.702800     0.797200    Uiso  ? C
   C90        1.0     0.500000     0.297200     0.202800    Uiso  ? C
   C91        1.0     0.500000     0.297200     0.797200    Uiso  ? C
   C92        1.0     0.500000     0.702800     0.202800    Uiso  ? C
   C93        1.0     0.297200     0.500000     0.202800    Uiso  ? C
   C94        1.0     0.702800     0.500000     0.797200    Uiso  ? C
   C95        1.0     0.297200     0.500000     0.797200    Uiso  ? C
   C96        1.0     0.702800     0.500000     0.202800    Uiso  ? C
   C97        1.0     0.267100     0.814500     0.000000    Uiso  ? C
   C98        1.0     0.732900     0.185500     0.000000    Uiso  ? C
   C99        1.0     0.732900     0.814500     0.000000    Uiso  ? C
   C100       1.0     0.267100     0.185500     0.000000    Uiso  ? C
   C101       1.0     0.000000     0.267100     0.814500    Uiso  ? C
   C102       1.0     0.000000     0.732900     0.185500    Uiso  ? C
   C103       1.0     0.000000     0.732900     0.814500    Uiso  ? C
   C104       1.0     0.000000     0.267100     0.185500    Uiso  ? C
   C105       1.0     0.814500     0.000000     0.267100    Uiso  ? C
   C106       1.0     0.185500     0.000000     0.732900    Uiso  ? C
   C107       1.0     0.814500     0.000000     0.732900    Uiso  ? C
   C108       1.0     0.185500     0.000000     0.267100    Uiso  ? C
   C109       1.0     0.814500     0.267100     0.000000    Uiso  ? C
   C110       1.0     0.185500     0.732900     0.000000    Uiso  ? C
   C111       1.0     0.814500     0.732900     0.000000    Uiso  ? C
   C112       1.0     0.185500     0.267100     0.000000    Uiso  ? C
   C113       1.0     0.267100     0.000000     0.185500    Uiso  ? C
   C114       1.0     0.732900     0.000000     0.814500    Uiso  ? C
   C115       1.0     0.732900     0.000000     0.185500    Uiso  ? C
   C116       1.0     0.267100     0.000000     0.814500    Uiso  ? C
   C117       1.0     0.000000     0.814500     0.732900    Uiso  ? C
   C118       1.0     0.000000     0.185500     0.267100    Uiso  ? C
   C119       1.0     0.000000     0.814500     0.267100    Uiso  ? C
   C120       1.0     0.000000     0.185500     0.732900    Uiso  ? C
   C121       1.0     0.267100     0.314500     0.500000    Uiso  ? C
   C122       1.0     0.732900     0.685500     0.500000    Uiso  ? C
   C123       1.0     0.732900     0.314500     0.500000    Uiso  ? C
   C124       1.0     0.267100     0.685500     0.500000    Uiso  ? C
   C125       1.0     0.000000     0.767100     0.314500    Uiso  ? C
   C126       1.0     0.000000     0.232900     0.685500    Uiso  ? C
   C127       1.0     0.000000     0.232900     0.314500    Uiso  ? C
   C128       1.0     0.000000     0.767100     0.685500    Uiso  ? C
   C129       1.0     0.814500     0.500000     0.767100    Uiso  ? C
   C130       1.0     0.185500     0.500000     0.232900    Uiso  ? C
   C131       1.0     0.814500     0.500000     0.232900    Uiso  ? C
   C132       1.0     0.185500     0.500000     0.767100    Uiso  ? C
   C133       1.0     0.814500     0.767100     0.500000    Uiso  ? C
   C134       1.0     0.185500     0.232900     0.500000    Uiso  ? C
   C135       1.0     0.814500     0.232900     0.500000    Uiso  ? C
   C136       1.0     0.185500     0.767100     0.500000    Uiso  ? C
   C137       1.0     0.267100     0.500000     0.685500    Uiso  ? C
   C138       1.0     0.732900     0.500000     0.314500    Uiso  ? C
   C139       1.0     0.732900     0.500000     0.685500    Uiso  ? C
   C140       1.0     0.267100     0.500000     0.314500    Uiso  ? C
   C141       1.0     0.000000     0.314500     0.232900    Uiso  ? C
   C142       1.0     0.000000     0.685500     0.767100    Uiso  ? C
   C143       1.0     0.000000     0.314500     0.767100    Uiso  ? C
   C144       1.0     0.000000     0.685500     0.232900    Uiso  ? C
   C145       1.0     0.767100     0.814500     0.500000    Uiso  ? C
   C146       1.0     0.232900     0.185500     0.500000    Uiso  ? C
   C147       1.0     0.232900     0.814500     0.500000    Uiso  ? C
   C148       1.0     0.767100     0.185500     0.500000    Uiso  ? C
   C149       1.0     0.500000     0.267100     0.314500    Uiso  ? C
   C150       1.0     0.500000     0.732900     0.685500    Uiso  ? C
   C151       1.0     0.500000     0.732900     0.314500    Uiso  ? C
   C152       1.0     0.500000     0.267100     0.685500    Uiso  ? C
   C153       1.0     0.314500     0.000000     0.767100    Uiso  ? C
   C154       1.0     0.685500     0.000000     0.232900    Uiso  ? C
   C155       1.0     0.314500     0.000000     0.232900    Uiso  ? C
   C156       1.0     0.685500     0.000000     0.767100    Uiso  ? C
   C157       1.0     0.314500     0.267100     0.500000    Uiso  ? C
   C158       1.0     0.685500     0.732900     0.500000    Uiso  ? C
   C159       1.0     0.314500     0.732900     0.500000    Uiso  ? C
   C160       1.0     0.685500     0.267100     0.500000    Uiso  ? C
   C161       1.0     0.767100     0.000000     0.685500    Uiso  ? C
   C162       1.0     0.232900     0.000000     0.314500    Uiso  ? C
   C163       1.0     0.232900     0.000000     0.685500    Uiso  ? C
   C164       1.0     0.767100     0.000000     0.314500    Uiso  ? C
   C165       1.0     0.500000     0.814500     0.232900    Uiso  ? C
   C166       1.0     0.500000     0.185500     0.767100    Uiso  ? C
   C167       1.0     0.500000     0.814500     0.767100    Uiso  ? C
   C168       1.0     0.500000     0.185500     0.232900    Uiso  ? C
   C169       1.0     0.767100     0.314500     0.000000    Uiso  ? C
   C170       1.0     0.232900     0.685500     0.000000    Uiso  ? C
   C171       1.0     0.232900     0.314500     0.000000    Uiso  ? C
   C172       1.0     0.767100     0.685500     0.000000    Uiso  ? C
   C173       1.0     0.500000     0.767100     0.814500    Uiso  ? C
   C174       1.0     0.500000     0.232900     0.185500    Uiso  ? C
   C175       1.0     0.500000     0.232900     0.814500    Uiso  ? C
   C176       1.0     0.500000     0.767100     0.185500    Uiso  ? C
   C177       1.0     0.314500     0.500000     0.267100    Uiso  ? C
   C178       1.0     0.685500     0.500000     0.732900    Uiso  ? C
   C179       1.0     0.314500     0.500000     0.732900    Uiso  ? C
   C180       1.0     0.685500     0.500000     0.267100    Uiso  ? C
   C181       1.0     0.314500     0.767100     0.000000    Uiso  ? C
   C182       1.0     0.685500     0.232900     0.000000    Uiso  ? C
   C183       1.0     0.314500     0.232900     0.000000    Uiso  ? C
   C184       1.0     0.685500     0.767100     0.000000    Uiso  ? C
   C185       1.0     0.767100     0.500000     0.185500    Uiso  ? C
   C186       1.0     0.232900     0.500000     0.814500    Uiso  ? C
   C187       1.0     0.232900     0.500000     0.185500    Uiso  ? C
   C188       1.0     0.767100     0.500000     0.814500    Uiso  ? C
   C189       1.0     0.500000     0.314500     0.732900    Uiso  ? C
   C190       1.0     0.500000     0.685500     0.267100    Uiso  ? C
   C191       1.0     0.500000     0.314500     0.267100    Uiso  ? C
   C192       1.0     0.500000     0.685500     0.732900    Uiso  ? C
